Labs/Figures/LabSix/PFOutPartD.dat
  Power Flow Case Title :                               
  Base MVA :  100.0 MVA

            CONVERGENCE SUMMARY 
   ITER            DELP              DELQ

    0.0          0.933447
    0.5                            0.854042
    1.0          0.182262
    1.5                            0.059693
    2.0          0.042819
    2.5                            0.019586
    3.0          0.016513
    3.5                            0.006292
    4.0          0.005925
    4.5                            0.369528
    5.0          0.191971
    5.5                            0.044315
    6.0          0.024831
    6.5                            0.009296
    7.0          0.012399
    7.5                            0.004634
    8.0          0.006298
    8.5                            0.106019
    9.0          0.052678
    9.5                            0.012038
   10.0          0.033901
   10.5                            0.011389
   11.0          0.025984
   11.5                            0.008515
   12.0          0.020492
   12.5                            0.006710
   13.0          0.016566
   13.5                            0.005404
   14.0          0.013688
   14.5                            0.004448
   15.0          0.011516
   15.5                            0.003729
   16.0          0.009834
   16.5                            0.003175
   17.0          0.008505
   17.5                            0.002738
   18.0          0.007437
   18.5                            0.002389
   19.0          0.006565
   19.5                            0.002105
   20.0          0.005844
   20.5                            0.001870
   21.0          0.005242
   21.5                            0.001674
   22.0          0.004732
   22.5                            0.001510
   23.0          0.004299
   23.5                            0.001369
   24.0          0.003926
   24.5                            0.001249
   25.0          0.003603
   25.5                            0.001145
   26.0          0.003322
   26.5                            0.001055
   27.0          0.003076
   27.5                            0.000975
   28.0          0.002859
   28.5                            0.000906
   29.0          0.002667
   29.5                            0.000844
   30.0          0.002496
   30.5                            0.000789
   31.0          0.002343
   31.5                            0.000741
   32.0          0.002206
   32.5                            0.000697
   33.0          0.002083
   33.5                            0.000657
   34.0          0.001972
   34.5                            0.000622
   35.0          0.001872
   35.5                            0.000590
   36.0          0.001780
   36.5                            0.000561
   37.0          0.001697
   37.5                            0.000534
   38.0          0.001621
   38.5                            0.000510
   39.0          0.001552
   39.5                            0.000488
   40.0          0.001488
   40.5                            0.000468
   41.0          0.001430
   41.5                            0.000449
   42.0          0.001377
   42.5                            0.000432
   43.0          0.001327
   43.5                            0.000417
   44.0          0.001282
   44.5                            0.000402
   45.0          0.001240
   45.5                            0.000389
   46.0          0.001201
   46.5                            0.000377
   47.0          0.001165
   47.5                            0.000365
   48.0          0.001132
   48.5                            0.000355
   49.0          0.001102
   49.5                            0.000345
   50.0          0.001073
   50.5                            0.000336
   51.0          0.001047
   51.5                            0.000328
   52.0          0.001023
   52.5                            0.000320
   53.0          0.001001
   53.5                            0.000313
   54.0          0.000980

  **************************** POWER FLOW REPORT ***************************

  BUS   VOLTAGE   ANGLE        GENERATION               LOAD  
  NO.    (PU)     (DEG)      (MW)       (MVAR)       (MW)        (MVAR)  


    30  0.7597   -42.12     0.00000     0.00000    10.60000     1.90000
    TO-BUS    29      -3.66908 MW    -0.55194 MVAR           
    TO-BUS    27      -6.91969 MW    -1.34897 MVAR           

    29  0.7749   -40.63     0.00000     0.00000     2.40000     0.90000
    TO-BUS    27      -6.12460 MW    -1.55996 MVAR           
    TO-BUS    30       3.72630 MW     0.66006 MVAR           

    27  0.8011   -38.60     0.00000     0.00000     0.00000     0.00000
    TO-BUS    25      48.63893 MW     6.63922 MVAR           
    TO-BUS    29       6.27082 MW     1.83624 MVAR           
    TO-BUS    30       7.19542 MW     1.86796 MVAR           
    TO-BUS    28     -62.12487 MW   -10.33448 MVAR           

    28  0.8769   -18.78     0.00000     0.00000     0.00000     0.00000
    TO-BUS     6     -53.75291 MW   -25.24034 MVAR           
    TO-BUS     8      -8.41567 MW    -9.57466 MVAR           
    TO-BUS    27      62.12487 MW    34.80806 MVAR           

    26  0.7600   -51.73     0.00000     0.00000     3.50000     2.30000
    TO-BUS    25      -3.49721 MW     9.24957 MVAR           

    24  0.8267   -33.47     0.00000     0.00000     8.70000     6.70000
    TO-BUS    25      47.57146 MW     3.56744 MVAR           
    TO-BUS    23     -18.91081 MW    -3.46900 MVAR           
    TO-BUS    22     -37.38495 MW    -3.85489 MVAR   OVERLOAD

    25  0.7270   -47.91     0.00000     0.00000    82.00000     0.00000
    TO-BUS    26       3.92794 MW    -8.60618 MVAR           
    TO-BUS    27     -44.53479 MW     1.19733 MVAR           
    TO-BUS    24     -41.29517 MW     7.39358 MVAR           

    23  0.8701   -29.77     0.00000     0.00000     3.20000     1.60000
    TO-BUS    24      19.62470 MW     4.92922 MVAR           
    TO-BUS    15     -22.82706 MW    -6.52838 MVAR           

    14  0.9289   -26.34     0.00000     0.00000     6.20000     1.60000
    TO-BUS    15       5.67623 MW     1.29580 MVAR           
    TO-BUS    12     -11.87230 MW    -2.89579 MVAR           

    15  0.9126   -26.91     0.00000     0.00000     8.20000     2.50000
    TO-BUS    18       6.36979 MW     1.88816 MVAR           
    TO-BUS    12     -32.55396 MW   -11.20275 MVAR           
    TO-BUS    23      23.57166 MW     8.03248 MVAR           
    TO-BUS    14      -5.58940 MW    -1.21733 MVAR           

    18  0.9007   -27.74     0.00000     0.00000     3.20000     0.90000
    TO-BUS    19       3.11430 MW     0.87232 MVAR           
    TO-BUS    15      -6.31292 MW    -1.77236 MVAR           

    12  0.9530   -24.60     0.00000     0.00000    11.20000     7.50000
    TO-BUS    16      11.96358 MW     6.07466 MVAR           
    TO-BUS    13       0.00000 MW   -23.16816 MVAR           
    TO-BUS     4     -68.73510 MW    -6.79906 MVAR           
    TO-BUS    14      12.08537 MW     3.33873 MVAR           
    TO-BUS    15      33.49607 MW    13.05852 MVAR           

    19  0.8972   -27.98     0.00000     0.00000     9.50000     3.40000
    TO-BUS    20      -6.38975 MW    -2.54427 MVAR           
    TO-BUS    18      -3.10606 MW    -0.85566 MVAR           

    20  0.9016   -27.74     0.00000     0.00000     2.20000     0.70000
    TO-BUS    10      -8.60881 MW    -3.28419 MVAR           
    TO-BUS    19       6.40973 MW     2.58422 MVAR           

    22  0.8903   -28.60     0.00000     0.00000     0.00000     0.00000
    TO-BUS    21     -18.74158 MW    -1.42043 MVAR           
    TO-BUS    10     -21.02290 MW    -6.13181 MVAR           
    TO-BUS    24      39.76151 MW     7.55404 MVAR   OVERLOAD

    21  0.8931   -28.29     0.00000     0.00000    17.50000    11.20000
    TO-BUS    10     -36.28736 MW   -12.72361 MVAR           
    TO-BUS    22      18.79328 MW     1.52561 MVAR           

    10  0.9183   -26.70     0.00000     0.00000     5.80000     2.00000
    TO-BUS     9     -47.02460 MW   -12.52336 MVAR           
    TO-BUS    17       0.77288 MW     2.10956 MVAR           
    TO-BUS    21      36.93245 MW    14.11202 MVAR           
    TO-BUS    22      21.46275 MW     7.03873 MVAR           
    TO-BUS     6     -26.63813 MW    -0.21217 MVAR           
    TO-BUS    20       8.70656 MW     3.50247 MVAR           

    17  0.9161   -26.70     0.00000     0.00000     9.00000     5.80000
    TO-BUS    10      -0.77094 MW    -2.10450 MVAR           
    TO-BUS    16      -8.22530 MW    -3.69457 MVAR           

    16  0.9287   -25.77     0.00000     0.00000     3.50000     1.80000
    TO-BUS    17       8.27606 MW     3.88088 MVAR           
    TO-BUS    12     -11.77626 MW    -5.68079 MVAR           

     4  0.9214   -13.84     0.00000     0.00000     7.60000     1.60000
    TO-BUS    12      68.73510 MW    20.24645 MVAR           
    TO-BUS     6     105.34135 MW     9.24692 MVAR           
    TO-BUS     2     -64.34474 MW   -15.19500 MVAR           
    TO-BUS     3    -117.35805 MW   -15.90067 MVAR           

    13  0.9870   -24.60     0.00000    24.00000     0.00000     0.00000
    TO-BUS    12       0.00000 MW    23.99558 MVAR           

     1  1.0600     0.00   380.73923    97.53549     0.00000     0.00000
    TO-BUS     2     251.05627 MW    50.92990 MVAR           
    TO-BUS     3     129.68296 MW    46.76868 MVAR           

     2  0.9934    -7.31    40.00000    50.00000    21.70000    12.70000
    TO-BUS     4      67.24907 MW    20.66765 MVAR           
    TO-BUS     5      98.44683 MW    14.79468 MVAR           
    TO-BUS     6      92.35513 MW    24.60123 MVAR           
    TO-BUS     1    -239.78950 MW   -22.75968 MVAR           

     9  0.9350   -23.25     0.00000     0.00000     0.00000     0.00000
    TO-BUS    11       0.00000 MW   -22.76284 MVAR           
    TO-BUS    10      47.02460 MW    15.61249 MVAR           
    TO-BUS     6     -47.02862 MW     7.14961 MVAR           

     6  0.9047   -16.76     0.00000     0.00000     0.00000     0.00000
    TO-BUS     9      47.02862 MW    -1.76578 MVAR           
    TO-BUS    10      26.63813 MW     4.89108 MVAR           
    TO-BUS     8      38.73599 MW    -3.41672 MVAR           
    TO-BUS     7      23.73685 MW   -10.61735 MVAR           
    TO-BUS     2     -86.92130 MW   -11.48845 MVAR           
    TO-BUS    28      54.52254 MW    26.93648 MVAR           
    TO-BUS     4    -103.77304 MW    -4.54114 MVAR           

    11  0.9856   -23.25     0.00000    24.00000     0.00000     0.00000
    TO-BUS     9       0.00000 MW    23.99566 MVAR           

     7  0.9070   -18.30     0.00000     0.00000    22.80000    10.90000
    TO-BUS     5       0.72623 MW   -20.78501 MVAR           
    TO-BUS     6     -23.52092 MW     9.88558 MVAR           

     5  0.9322   -18.98     0.00000    40.00000    94.20000    19.00000
    TO-BUS     7      -0.50347 MW    19.62128 MVAR           
    TO-BUS     2     -93.67510 MW     1.37410 MVAR           

     8  0.9011   -17.92     0.00000    40.00000    30.00000    30.00000
    TO-BUS    28       8.52627 MW     6.53927 MVAR           
    TO-BUS     6     -38.51462 MW     3.45777 MVAR           

     3  0.9458   -11.05     0.00000     0.00000     2.40000     1.20000
    TO-BUS     4     119.53689 MW    21.42433 MVAR           
    TO-BUS     1    -121.94930 MW   -22.62004 MVAR           



  *********************** AREA INTERCHANGE REPORT ***************************

  FROM AREA

                TO   AREA   MW FLOW  MVAR FLOW

